Circuit: * C:\Users\Mark.Smith\Dropbox\personal\SurfnCircuits\BWM_E36_FlashLightHack\LTSimFiles\BMW_E36_FlashLightHackFastCharge.asc

Direct Newton iteration failed to find .op point.  (Use ".option noopiter" to skip.)
Starting Gmin stepping
Gmin = 10
Gmin = 1.07374
Gmin = 0.115292
Gmin = 0.0123794
Gmin = 0.00132923
Gmin = 0.000142725
Gmin = 1.5325e-005
Gmin = 1.6455e-006
Gmin = 1.76685e-007
Gmin = 1.89714e-008
Gmin = 2.03704e-009
Gmin = 2.18725e-010
Gmin = 2.34854e-011
Gmin = 2.52173e-012
Gmin = 2.70769e-013
Gmin = 0
Gmin stepping succeeded in finding the operating point.


Date: Tue Aug 01 21:28:40 2017
Total elapsed time: 0.194 seconds.

tnom = 27
temp = 27
method = modified trap
totiter = 2947
traniter = 2487
tranpoints = 1147
accept = 1122
rejected = 25
matrix size = 22
fillins = 10
solver = Normal
Matrix Compiler1: 2.06 KB object code size  0.7/0.5/[0.3]
Matrix Compiler2: off  [0.4]/0.6/1.0


